**$ENCRYPTED_LIB
**$INTERFACE
*$
* LM2576
*****************************************************************************
* (C) Copyright 2016 Texas Instruments Incorporated. All rights reserved.                                            
*****************************************************************************
** This model is designed as an aid for customers of Texas Instruments.
** TI and its licensors and suppliers make no warranties, either expressed
** or implied, with respect to this model, including the warranties of 
** merchantability or fitness for a particular purpose.  The model is
** provided solely on an "as is" basis. The entire risk as to its quality
** and performance is with the customer.
*****************************************************************************
*
* This model is subject to change without notice. Texas Instruments
* Incorporated is not responsible for updating this model.
*
*****************************************************************************
*
** Released by: WEBENCH Design Center, Texas Instruments Inc.
* Part: LM2576
* Date: 01DEC2016
* Model Type: TRANSIENT
* Simulator: PSPICE
* Simulator Version: 16.2.0.p001
* EVM Order Number: NA
* EVM Users Guide: NA
* Datasheet: SNVS107D –JUNE 1999–REVISED MAY 2016
*
* Model Version: Final 1.00
*
*****************************************************************************
*
* Updates:
*
* Final 1.00
* Release to Web.
*
*****************************************************************************
* Model Usage Notes:
*
* 1. The following features have been modelled
*      a. Start-up
*      b. Output Current Limit
*      c. Load Transients
*      d. Line Transients
*      e. Inverting Mode Operation
*      f. Enable & Disable by ON_OFF pin
*
* 2. The following features have not been modelled
*      a. Thermal Characteristics 
*      b. Leakage and quiscent currents 
*
*****************************************************************************
.SUBCKT LM2576_TRANS VIN OUT GND FB ON_OFF_N 
$CDNENCSTART
eee8c5c7a2bc4b01f045f303678664e7916da0bae22e8cb0bba041dd67c69ce448ea70148a9ac1670c8926c1ac5057c8ccfcd77bf87ca9dc51ca76f58a35c91b
301e882fc75603990abfc569c2f15564e5e7fade4086c0d189ad813f3396c3d80b4268ecbbe82783e71f71e18758417129766539e762b70b40601caa310a6403
f0141b5f35912e42ac73e51ea61710290a6771ad23d33c5d67f17d9211184cc802156da8e0126f88b4c0a539438856638dcea2cdd2d3d5ccd573267e41263c5c
dd06c2baef735cae2b1410deca799d73d71742e71191210ff58ca8241792b05a5cfffe3e41e724d89b8e33abac4fd6edb75342127bae6f16cb877092beb350ce
4b6085f2012636676f3085441f0c7a2a4933b4956fec239f32d311631d8c3bd1ec096c0dd002d2e557f1e4a5191c6f795b5326d5beb58b59ef25a3ab07f91618
48b4f3abbdab15bb0d0fb41c7f68fd4a67572745338bc9b5013ca30a61a302ca5133d90fa3d56eeed245d9b3a8f365eb751145827674df602a895d927099e94d
4651b4c215cbe2b1c23cdff2c91ac450a15c08c068a69808cfc7b22210e4b40bc705dd04b9ac082dccad7adb7aae9f28978f46adb128e4ea5a2503db5ae329fe
8767f397bff4c3a731bbfa71d5efb6fe825b843a3aa9ddcda15c08c068a69808cfc7b22210e4b40bc705dd04b9ac082dccad7adb7aae9f28f2212e091cd93164
0c09af8d36148b9fcd9f9b0fe66d8ad1d3057bc3d24861242aa1bfcd268e8730fad84ec3b26a5acd6f3a4f47fcacce3064abe1e5e869ec6b220aafedd98cd7c4
9c6daac319b22599d71742e71191210ff58ca8241792b05a5cfffe3e41e724d89b8e33abac4fd6edb75342127bae6f16d359b620d68421abcbbf6e07f589a605
fd80f3b49cb1eb4ba286ab8191b330075911b2e9db277617a5257eba54077ab5021166ac3753b7b831bbfa71d5efb6fe825b843a3aa9ddcd9f5367f224a7b243
0c09af8d36148b9f239bdbe658d21d00b10f18b47b788bdb3f4b8b43a9354ed2207a9d39551e718e223585a85ed9b4c099e19c067df7fcbd96f101888cba0922
8dcea2cdd2d3d5cc9783ae8e4821c68fbaa78b47fb353ab329766539e762b70b259a5cae22e5e1347f6986a562dee8ca1575cdbe67587a51e0d56b96cc9cd24f
bbf0a766f49a242c2637e9cac2aa5ceafd49a287c76beca9cf3db11be0503885c9c599a0ff3f11008534ad3211a69538deb7a7a8d541aada1033010f5cd6d509
a46796ea7979f847706b807646b803716f3a4f47fcacce30e94b2032b97a8553e9e0043a1ebe6a830b285eac4661c719d71742e71191210f293f04cca3f2df83
d033de05ffd65cd6317595c74abd44ec3e1c7f39bb0c448b9a5075d941dd68501748013770edc16cd4b25841eeba9a4117ee56e50ae7f3f9a8ec914e0f576cdd
84066b8d22dcbbe7706b807646b803716f3a4f47fcacce30a413c0b6b6a6a6ba29c79574a394a7a80092c286b5ac64a1a15c08c068a69808f00938bf66570f8b
16d2b5b5bf51d8af706b807646b8037104d63a8518b2927754e18ac7ff98bc7f478a87bc5b8e6cf92c4b5f36edab5d85205390f71dfd58f50c1235654ffecf05
0c09af8d36148b9fbc27f931268b4061ebb41d2a2da3a24ced9e5d9bad09f62f82062f07316390aeac0c9ee9d60b6dd5e88e4f265353395ce4e72beed32b1f99
5911b2e9db27761795d7fcca0b5012cca15c08c068a69808cfc7b22210e4b40bc705dd04b9ac082dccad7adb7aae9f28978f46adb128e4ea5a2503db5ae329fe
bbf0a766f49a242c2637e9cac2aa5cea2cecad1ebf804c4bf467148f06ca8e43462ea865fb28c8b02dcdc84ef88103e9ba39ad056100a5212f1c2215554fcaee
6557fad503f10fbe706b807646b803716f3a4f47fcacce308289d3cf8f3f8b4815c311d5d38b1803a15c08c068a69808cfc7b22210e4b40b3c2d3e80b52ef4c2
752f80a7b3d957d7706b807646b803716f3a4f47fcacce3079e6672a5f01be87b20004b7a2b9dfd4a15c08c068a69808cfc7b22210e4b40b3c2d3e80b52ef4c2
abf704f571ae9bae706b807646b80371c80dc45af98d978c9f9287554b19e28b478a87bc5b8e6cf92c4b5f36edab5d85205390f71dfd58f50c1235654ffecf05
0c09af8d36148b9fcc0121b5e20e2076ebb41d2a2da3a24ced9e5d9bad09f62f25e2e879bcbb5884751dbfb3947688c3a0d97cd138b2b4afe4e72beed32b1f99
5911b2e9db27761795d7fcca0b5012cca15c08c068a69808cfc7b22210e4b40bc705dd04b9ac082dccad7adb7aae9f28978f46adb128e4ea5a2503db5ae329fe
bbf0a766f49a242c2637e9cac2aa5cea2cecad1ebf804c4bf467148f06ca8e43462ea865fb28c8b02dcdc84ef88103e9ba39ad056100a5212f1c2215554fcaee
5effa817da6dffd10fa4ea595ab98ca0bff711558771a1097cbae7255f8837957208a85e1aefd30a2377eb47240a89939778976bdbc15011ac9097f7855e3713
a4be96fc3fb170e1e73070a45f1d549c09d65151d9e42478cdccad8df35e9b29aee5b5e62dba4c4b15b55a3092501918696c7c671e380a702ab26d8f74e6806c
5effa817da6dffd12716e67bb37c7392b0b9c93c09a49a85bc98eb129ae2d3ce749d13634498f34bc9322890ded6647bc419f9041ed33fe30524e28ec3ba3c27
a3c86f60564f9b7a8675a01b2db95be7a15c08c068a69808cfc7b22210e4b40bc705dd04b9ac082dccad7adb7aae9f28978f46adb128e4ea5a2503db5ae329fe
0523ae8f48fd0a71706b807646b803716f3a4f47fcacce302047386d515cb0d230990a73fdd92578e5821d16d48d0a438c15ded08cd8e720abb485c8ac7a39ac
952be27c3f13e8c4706b807646b803716f3a4f47fcacce30c6cb488db5fac22ec5eff3896a4ce9ed23b782b3d6a37df14933b4956fec239fb9c7b93618d3188a
0c09af8d36148b9feb87848776396383b10f18b47b788bdb6d085ac2ab3a1a312da642a016ccde7cafeab075191de61f8f26dd77f7410485c27a0fe47ba19b0a
4651b4c215cbe2b1c23cdff2c91ac450a15c08c068a69808cfc7b22210e4b40bc705dd04b9ac082dccad7adb7aae9f28978f46adb128e4ea5a2503db5ae329fe
8767f397bff4c3a731bbfa71d5efb6fe825b843a3aa9ddcda15c08c068a69808cfc7b22210e4b40bc705dd04b9ac082dccad7adb7aae9f28f2212e091cd93164
ad8285e93ad4ba30706b807646b803716f3a4f47fcacce301afdd98a6b7b709be1f259d078df733dc9c599a0ff3f11008534ad3211a695382270f4d9c5c8e3af
68149266ab7c47f43cfc4646df7650b9fa9f4b068969543d217b878a5125bdc96b574213c15e8d89d834e69e707cfaf1f92432c7e563a191dd1ae9c8ba4bcbc3
506b43a88ece3ab60e43212f90505cd43a609396239ce489bd29c5f49646d854c25218b7de43493e563ecb935ad6554422c8b4d26042e06fd38aff4e12555a5d
5effa817da6dffd19f50c449b546348cb9891db96dfd974c130a4ef0b5c041ec6b574213c15e8d89762ee14c1e8a59829a293e5bb45068e3aa817227daa4825e
cd53327ccf7b71bbfa9121f2737a634f9a5075d941dd685088822a97adcf4ac7b640b08f3c8849e59674edd60fc78636eacf07c8f49585803a2c00962211edba
9497d74a6d33300fb7b38cbed98c34e13e5361d27893fe0bc9c599a0ff3f11008534ad3211a69538deb7a7a8d541aada1ab093d9693dee2cf6c9a2cd9aa24567
1e0b22458c9e013ce71f71e18758417129766539e762b70b259a5cae22e5e1347f6986a562dee8ca1575cdbe67587a51044c454f72f476010d36e45bafdbe204
0c09af8d36148b9fa665d0fac02ce03eb10f18b47b788bdb6d668739d4b4c03e207a9d39551e718eda3fe792627e923c692e44dc0d4d04f49f5367f224a7b243
366d624da67b5ddb706b807646b803716f3a4f47fcacce306e3dcd635a1b2c6ffd82274b62471a9124be77f172ebdc5124fdfd9bb2e10b07ee6931e8b7bd3509
6e45dcaeb48aaf7a706b807646b803712c1ef432a1927a8264d649847ebe0a5cad7195ab2367f0f4042f0c0c78bb0debc9c599a0ff3f11001802f5580fc86deb
0c09af8d36148b9fc12e63f53fc8b6c7b10f18b47b788bdbc1c096b7588667e0c69330a7988a7b21fb09457e9cb112a12c4b5f36edab5d855614467d40b160e6
ef17502e52110345706b807646b803719cce70535307b0f33a31eb7de01c013b64d649847ebe0a5cc2435d6038970705478a87bc5b8e6cf9d38aff4e12555a5d
0c09af8d36148b9fbf230db17611f82f0a0c3ae6001416d3266c54f09612c0cdb85e28795a4627937d5252ae9a1b286a589af0812576e61b450139be464a895d
b032015482838020d2208d979160a9024933b4956fec239f32d311631d8c3bd1ec096c0dd002d2e557f1e4a5191c6f795b5326d5beb58b59ef25a3ab07f91618
8767f397bff4c3a731bbfa71d5efb6fe102372497787b35cd71742e71191210ff58ca8241792b05a5cfffe3e41e724d89b8e33abac4fd6edaa83b509f1bb8d67
5effa817da6dffd1aa226ddcd7a97fd3b0b9c93c09a49a8597fc5549e29deacd749d13634498f34b4370dbcfde59267f207a9d39551e718efa42de13c7439cfd
6993580666e70cb29bfb28a5c71ccc2bd71742e71191210ff58ca8241792b05a5cfffe3e41e724d89b8e33abac4fd6edb75342127bae6f16cb877092beb350ce
5f41a7a4794b5367cf654610c1be120a749d13634498f34b60982a91af0131133efcea856e03cbcbd71742e71191210ff58ca8241792b05a7396d08aa1234f33
9c3e801b31a04ffe070ad78826a995de8d5088e3526a9c1ffb09457e9cb112a12c4b5f36edab5d85205390f71dfd58f5ba635946d5f874f5dc5ead4b009a8862
0dea85bdd2f61705ac73e51ea6171029ba365f0e8bb3f819b080546daf9700872c4b5f36edab5d85205390f71dfd58f5ba635946d5f874f5dc5ead4b009a8862
394197bedeb77a710abfc569c2f15564360b4259900b1d7b2d42b8b15327b24e23b782b3d6a37df14933b4956fec239f32d311631d8c3bd18c6e40feef044a60
8efb3410d607ec92706b807646b803714e484a5c2e0bc4b8e3b73c64a6a95145ceae497e822b0eb036806a8e381bf9a029766539e762b70b40601caa310a6403
6744c51804b14378706b807646b803715321c7c372e4acc31ff4385e8c666dea50932f91c29cb99b710f626c2faf14a6462ea865fb28c8b02f68c7ef366a809a
031f7e9a2d166d6b706b807646b80371a75fa1d05ca73bdbaaa243bb7dad1910188141da37b8b2bd478a87bc5b8e6cf92c4b5f36edab5d855614467d40b160e6
a96086862cb84820706b807646b803714924b192ea86944e805adb7ca0bc3b54a75fa1d05ca73bdbf2951fc3b423e183c9c599a0ff3f11001802f5580fc86deb
c1a351b4e6252f30706b807646b803714924b192ea86944ee9e84371b033cb43a01c886f9c03e6bac99b1022cadd303824fdfd9bb2e10b07ee6931e8b7bd3509
950bbfbf26f6ea96706b807646b803714297aa2264b41d66ab58864dcd4dcdb8478a87bc5b8e6cf92c4b5f36edab5d85205390f71dfd58f50c1235654ffecf05
6e946f8ae35ee13fcd9f9b0fe66d8ad1ec59bb5a918051ea8a6e5b7cdc67a519a3453ba7982d296d02adee086b68718e75423ec3e9c4f8e5207aa70ac7b4ebb9
87dbeb3d98c12ab6b5f1c17ee7956303462ea865fb28c8b02dcdc84ef88103e9ba39ad056100a521c57992451103f08d5b7397961c85313439e9cfc6abb687cb
bedb4c285028d389bbac780aef038120749d13634498f34b2da8335bda4575a93fdc43ccb9727e82a770ffc06755e0b9c9c599a0ff3f11001802f5580fc86deb
48a94d11d238250fbe32984e42c5dc26eb1b4bc0015d2e5bd8017090b54e1642530a89682b63cde2496ead4cc15468542c4b5f36edab5d855614467d40b160e6
615a28c46d723740a60fd3951de4fe94360b4259900b1d7bc9e53f10e8beeb6723b782b3d6a37df14933b4956fec239f32d311631d8c3bd18c6e40feef044a60
afe317ae10e98155ac73e51ea6171029a8b45932bf21f250cbf0b63f806140dc815a22ea648c520ca3c7a7fbe799e403b6e67a5e5607b6f933c80e428ad643d7
88b96b7c831faa4a41097083f6b3a209c9c599a0ff3f11008534ad3211a69538deb7a7a8d541aada1ab093d9693dee2c1b68a86dfd8a38f773aa620944656ac8
bbf0a766f49a242c2637e9cac2aa5ceafd49a287c76beca9cf3db11be0503885c9c599a0ff3f11008534ad3211a69538deb7a7a8d541aada1033010f5cd6d509
1f59022967e7ca7b1b335ff666912215d1f2b6307fdbafe7f08dc406ba2e9004823677011b9f92159c43c24eda4802f788b96b7c831faa4af2d5e5299905ab7b
a68ba69006c80e09157dcbb6421b125609d65151d9e42478cdccad8df35e9b29aee5b5e62dba4c4b15b55a3092501918696c7c671e380a702ab26d8f74e6806c
4b6085f2012636675a0aa31c52cddba976617f42cd5d956b29766539e762b70b259a5cae22e5e1347f6986a562dee8ca1575cdbe67587a51e0d56b96cc9cd24f
ec15c8e1fe71fbcaaf0e804c85ed0320d75e8915ea2b2635b7365f92a35aeac8b4da617ea7d06be8c9e755c91a3dd2a86c307fd97381d840840c3e48a7ccdd2f
0a3995265347d1d0706b807646b803713f6e6b759eaaa23e7208a85e1aefd30abbd8efbe302528d1fd808a7030d609240067757ef9ccb77f23b6f24dccaeb793
8675a01b2db95be7a15c08c068a69808cfc7b22210e4b40bc705dd04b9ac082dccad7adb7aae9f28978f46adb128e4ea0cc46c6d17a536573ed620e073104392
47c23e9c66a62fc7706b807646b803719508373e6f7e0d66da3cbe006e057103a3d4072b55b1f5b89508373e6f7e0d66a9697ef31754165ae4e72beed32b1f99
5911b2e9db27761795d7fcca0b5012cca15c08c068a69808cfc7b22210e4b40bc705dd04b9ac082dccad7adb7aae9f28978f46adb128e4ea5a2503db5ae329fe
bbf0a766f49a242c2637e9cac2aa5cea2cecad1ebf804c4bf467148f06ca8e43462ea865fb28c8b02dcdc84ef88103e9ba39ad056100a5212f1c2215554fcaee
929dc9e7a178af65af0e804c85ed0320d75e8915ea2b2635b800e35d6f658715f618abeb8f40b31e710f626c2faf14a6462ea865fb28c8b02f68c7ef366a809a
b51b763b4a9848f9957673035b26e32b96650b333c8e179e062e8f6cf568a814478a87bc5b8e6cf92c4b5f36edab5d85205390f71dfd58f50c1235654ffecf05
f81c2ecc6b1ec4ca957673035b26e32b576b878114f2c1526b195ce4524097a8b82de43fdb7840e4c9c599a0ff3f11008534ad3211a695382270f4d9c5c8e3af
a145f481994970acaf0e804c85ed0320d75e8915ea2b26352cde9082c32312847da1a188415e1e2cbafe5040957ee65200d3e0b087c737449f5367f224a7b243
828bdbc413685558706b807646b803719508373e6f7e0d66277f75e988fc78c2211dfaa3935c9a57c600e1c485ccaa384933b4956fec239fb9c7b93618d3188a
3bdfb3bcf8540f577efe32260406b830d1bfbfdbed49dec8d71742e71191210ff58ca8241792b05a5cfffe3e41e724d89b8e33abac4fd6edaa83b509f1bb8d67
600062a8f6bfa763f04795cd7f2951cb6c1aa2f1804bd332c55c8187f39b70be462ea865fb28c8b02dcdc84ef88103e9ba39ad056100a5212f1c2215554fcaee
$CDNENCFINISH
.ENDS LM2576_TRANS
*$
.subckt Oscillator_OSC_S1 1 2 3 4  
$CDNENCSTART
eee8c5c7a2bc4b01f045f303678664e7916da0bae22e8cb0bba041dd67c69ce448ea70148a9ac1670c8926c1ac5057c8ccfcd77bf87ca9dc51ca76f58a35c91b
493930a2b36550fa706b807646b80371180f9852cfb962b097fe7e0447d6604e2c4b5f36edab5d85205390f71dfd58f5ba635946d5f874f5dc5ead4b009a8862
322ed443554da109cd9f9b0fe66d8ad19fdd4d3bdfe20cf02c4b5f36edab5d85205390f71dfd58f5ba635946d5f874f58a99829673130fbf5cf6e63fd8b48ef8
1e7e75f62a07f7b1bbcb463bf6330e44f540674d6f6edc40fb3b1a8334015d62d1c429fd2f3b2883f788ad2765b8b11b8f182a59499ce640c1e748e55049567d
f2b0acb378d528f809d65151d9e42478cdccad8df35e9b29aee5b5e62dba4c4b15b55a3092501918696c7c671e380a706e952e89d7e01db41b1fffc2f18b6773
$CDNENCFINISH
.ends Oscillator_OSC_S1
*$
.subckt LM2576_S1 1 2 3 4  
$CDNENCSTART
eee8c5c7a2bc4b01f045f303678664e7916da0bae22e8cb0bba041dd67c69ce448ea70148a9ac1670c8926c1ac5057c8ccfcd77bf87ca9dc51ca76f58a35c91b
44f117741689d59131820e631d1d1d749e35700c7913e9392c4b5f36edab5d85205390f71dfd58f5ba635946d5f874f58a99829673130fbf5cf6e63fd8b48ef8
3c76beba9b808c126f31076d2b37e96baa35006d782c6ce9a15c08c068a69808cfc7b22210e4b40bc705dd04b9ac082dccad7adb7aae9f28f2212e091cd93164
1e7e75f62a07f7b1bbcb463bf6330e447b3ba2fd65dbf9050ffb76e2ddf4497b2b884efd2cdcb8cff2d7070cffa71eea2c84434bed0c637ad885f5493ac90689
$CDNENCFINISH
.ends LM2576_S1
*$
.SUBCKT d_d1 1 2
$CDNENCSTART
eee8c5c7a2bc4b01f045f303678664e7916da0bae22e8cb0bba041dd67c69ce448ea70148a9ac1670c8926c1ac5057c8ccfcd77bf87ca9dc51ca76f58a35c91b
1580a2664af5c9b71dffb53947c4a050462ea865fb28c8b02dcdc84ef88103e9ba39ad056100a521c57992451103f08d5b7397961c85313439e9cfc6abb687cb
0697746efb67a3a31bd27f7c588c83c3b468f2b235a29307455a30aeac0f0f975c8b8b8b6836759eb0c746ebeec945e42c4b5f36edab5d855614467d40b160e6
$CDNENCFINISH
.ENDS d_d1
*$
.SUBCKT srlatchrhp_basic_gen s r q qb params: vdd=1 vss=0 vthresh=0.5 
$CDNENCSTART
eee8c5c7a2bc4b01f045f303678664e7916da0bae22e8cb0bba041dd67c69ce448ea70148a9ac1670c8926c1ac5057c8ccfcd77bf87ca9dc51ca76f58a35c91b
00c22438355b852f22153c0e54c14d95eceb03e19e7d5bb12500fbfcd1e6dc63d955a639bab551a5a5b2c72056349c056b4a2a611ad9fc68568fb64b375aaa0d
e634d4e8e9534d11c9c599a0ff3f11008534ad3211a69538deb7a7a8d541aada1ab093d9693dee2c1b68a86dfd8a38f729cd834d0ffb4c86414f1653db06ac25
abd22491c7fde3c1338602ff93fff92dd71742e71191210ff58ca8241792b05a5cfffe3e41e724d89b8e33abac4fd6edb75342127bae6f16cb877092beb350ce
06235f9c871cc910f2667b5cb330c5cf0074c1136392917ed71742e71191210ff58ca8241792b05a5cfffe3e41e724d89b8e33abac4fd6edaa83b509f1bb8d67
118eaa16c66804254f63c839888ec31d8b21034edf29744e09d65151d9e42478cdccad8df35e9b29aee5b5e62dba4c4b15b55a3092501918bc57c6206b877333
1e9d3604cedd05a3adfbe11dbbe113db4933b4956fec239f32d311631d8c3bd1ec096c0dd002d2e557f1e4a5191c6f795b5326d5beb58b59ef25a3ab07f91618
04e8a55803e020aec06033f27e7478832787d9f344bdc2bdc9c599a0ff3f11008534ad3211a69538deb7a7a8d541aada1ab093d9693dee2cf6c9a2cd9aa24567
26b6465599f5655e4343d80e9ea1b0e8644126c9831a96bd29766539e762b70b259a5cae22e5e1347f6986a562dee8ca1575cdbe67587a51e0d56b96cc9cd24f
6ae582601b06f7e86bb21be4659546ad36806a8e381bf9a029766539e762b70b259a5cae22e5e1347f6986a562dee8ca1575cdbe67587a51e0d56b96cc9cd24f
2bd498e1ebffcff16f8d7d1596c39994638262bb062289a675f70392eb1854ed32d2aa4538f8cd66d07278ad2b7b2626edb2ee08d6306e66bfcdce2e1caf26dc
2048273d4eb7385dfb70a0711a8b0835462ea865fb28c8b02dcdc84ef88103e9ba39ad056100a521c57992451103f08d5b7397961c85313439e9cfc6abb687cb
b263e367fa927fc2568da593b53d7fdfc9c599a0ff3f11008534ad3211a69538deb7a7a8d541aada1ab093d9693dee2c1b68a86dfd8a38f773aa620944656ac8
aac572769bffbe5e800d98744678c7f882d12c16aa0c2c76398be9b3cc888a434aa2053337774bffba142d6e85a31f59fd662b7a9f7943fe840c3e48a7ccdd2f
845f0c4dc0982665f2d88089f97e74e6c9c599a0ff3f11008534ad3211a69538deb7a7a8d541aada1ab093d9693dee2c1b68a86dfd8a38f773aa620944656ac8
03c231969296cacb2b74c2e07dcfc2b6d71742e71191210ff58ca8241792b05a5cfffe3e41e724d89b8e33abac4fd6edb75342127bae6f16cb877092beb350ce
8e667c3952483569330eb8821ecf4a79d71742e71191210ff58ca8241792b05a5cfffe3e41e724d89b8e33abac4fd6edb75342127bae6f16cb877092beb350ce
dbedb15227ce9151ca710c39bba9cf0fe71f71e18758417129766539e762b70b259a5cae22e5e1347f6986a562dee8ca1575cdbe67587a51e0d56b96cc9cd24f
0697746efb67a3a324d1ed9bad64659de35616f2254aa0bb2c6bb07ad3cb2305df5af7db6c16b8abf1b8d4b40bb76eadf6c57157062f5a99c5a8b203c0da956f
$CDNENCFINISH
.ENDS srlatchrhp_basic_gen
*$
.SUBCKT COMP_BASIC_GEN INP INM Y PARAMS: VDD=1 VSS=0 VTHRESH=0.5	
$CDNENCSTART
eee8c5c7a2bc4b01f045f303678664e7916da0bae22e8cb0bba041dd67c69ce448ea70148a9ac1670c8926c1ac5057c8ccfcd77bf87ca9dc51ca76f58a35c91b
324d0b28bd3976fec3fa3d1e401a4503c7cd3c6de157579e2a235350161d1bcb644126c9831a96bd29766539e762b70b259a5cae22e5e134f3124dedab81c4b9
31a245cc4f39b9f1af5040d5c61521d091d34273a8fcd1ded71742e71191210ff58ca8241792b05a5cfffe3e41e724d89b8e33abac4fd6edaa83b509f1bb8d67
3b7f5ebe940d64624170694978eb4cf809d65151d9e42478cdccad8df35e9b29aee5b5e62dba4c4b15b55a3092501918696c7c671e380a702ab26d8f74e6806c
b076ff8d9576189163285b290822439129766539e762b70b259a5cae22e5e1347f6986a562dee8ca1575cdbe67587a51044c454f72f476010d36e45bafdbe204
$CDNENCFINISH
.ENDS COMP_BASIC_GEN
*$
.SUBCKT COMPHYS_BASIC_GEN INP INM HYS OUT PARAMS: VDD=1 VSS=0 VTHRESH=0.5	
$CDNENCSTART
eee8c5c7a2bc4b01f045f303678664e7916da0bae22e8cb0bba041dd67c69ce448ea70148a9ac1670c8926c1ac5057c8ccfcd77bf87ca9dc51ca76f58a35c91b
9132b7121104d4358be44c41ab888f41b6e3a1568843d8672c4b5f36edab5d85205390f71dfd58f5ba635946d5f874f58a99829673130fbf5cf6e63fd8b48ef8
70d49a25931fcad5af5f0f227a33dfc56b574213c15e8d8904d73209bd6cb354e07469d76c73f504727902e71a3e75d8bb77e20fe987edd8d38aff4e12555a5d
d1579de13894cc53749d13634498f34b2814ec203481f38f6485690991963efc688dc2cfc32ec3a9609956094a2f05290f82827fc36822f02ba2c1c1728c017b
c985c90e830fff9457e2c5aa80851370462ea865fb28c8b02dcdc84ef88103e9ba39ad056100a521c57992451103f08d5b7397961c85313439e9cfc6abb687cb
1fdb31c906bbcd7763285b290822439129766539e762b70b259a5cae22e5e1347f6986a562dee8ca1575cdbe67587a51044c454f72f476010d36e45bafdbe204
13142c038a62aa150aa66cfdd7abddd7d71742e71191210ff58ca8241792b05a5cfffe3e41e724d89b8e33abac4fd6edb75342127bae6f16cb877092beb350ce
$CDNENCFINISH
.ENDS COMPHYS_BASIC_GEN
*$
.SUBCKT BUF_BASIC_GEN A  Y PARAMS: VDD=1 VSS=0 VTHRESH=0.5 
$CDNENCSTART
eee8c5c7a2bc4b01f045f303678664e7916da0bae22e8cb0bba041dd67c69ce448ea70148a9ac1670c8926c1ac5057c8ccfcd77bf87ca9dc51ca76f58a35c91b
f305b7cfa07651615a9037c8c42a602b94aebb18efc1b73c4a0534bc16c6b751d67091752c09698a1541fe9d381cc675040397452ddd041551ca76f58a35c91b
7e21bb79cbca9f8ce0c67063107b52eb2c4b5f36edab5d85205390f71dfd58f5ba635946d5f874f58a99829673130fbf46f98d7eec289d0165532bcf19a3c15f
bd9831b9881f0b92e8f02e93fcf213a8c9c599a0ff3f11008534ad3211a69538deb7a7a8d541aada1ab093d9693dee2c1b68a86dfd8a38f773aa620944656ac8
02f2959404528fbd9ad2dc2e0af5de0e09d65151d9e42478cdccad8df35e9b29aee5b5e62dba4c4b15b55a3092501918696c7c671e380a702ab26d8f74e6806c
$CDNENCFINISH
.ENDS BUF_BASIC_GEN
*$
.SUBCKT OR2_BASIC_GEN A B Y PARAMS: VDD=1 VSS=0 VTHRESH=0.5 
$CDNENCSTART
eee8c5c7a2bc4b01f045f303678664e7916da0bae22e8cb0bba041dd67c69ce448ea70148a9ac1670c8926c1ac5057c8ccfcd77bf87ca9dc51ca76f58a35c91b
f305b7cfa07651615a9037c8c42a602b94aebb18efc1b73c4a0534bc16c6b751d67091752c09698a1541fe9d381cc67513d1669f9b59f9459f5367f224a7b243
ce312808b0a91175dcf306adebf133c01a6c7500361cb5a45652e10015a645e7e71f71e18758417129766539e762b70b259a5cae22e5e134f3124dedab81c4b9
bd9831b9881f0b92e8f02e93fcf213a8c9c599a0ff3f11008534ad3211a69538deb7a7a8d541aada1ab093d9693dee2c1b68a86dfd8a38f773aa620944656ac8
02f2959404528fbd9ad2dc2e0af5de0e09d65151d9e42478cdccad8df35e9b29aee5b5e62dba4c4b15b55a3092501918696c7c671e380a702ab26d8f74e6806c
$CDNENCFINISH
.ENDS OR2_BASIC_GEN
*$
.SUBCKT NAND2_BASIC_GEN A B Y PARAMS: VDD=1 VSS=0 VTHRESH=0.5 
$CDNENCSTART
eee8c5c7a2bc4b01f045f303678664e7916da0bae22e8cb0bba041dd67c69ce448ea70148a9ac1670c8926c1ac5057c8ccfcd77bf87ca9dc51ca76f58a35c91b
f305b7cfa07651615a9037c8c42a602b94aebb18efc1b73c4a0534bc16c6b751d67091752c09698a1541fe9d381cc675621f57e8bf9b586e9f5367f224a7b243
ce312808b0a91175dcf306adebf133c03f0d1e907c0bf31f0104c14ab5ddc9bee71f71e18758417129766539e762b70b259a5cae22e5e134f3124dedab81c4b9
bd9831b9881f0b92e8f02e93fcf213a8c9c599a0ff3f11008534ad3211a69538deb7a7a8d541aada1ab093d9693dee2c1b68a86dfd8a38f773aa620944656ac8
02f2959404528fbd9ad2dc2e0af5de0e09d65151d9e42478cdccad8df35e9b29aee5b5e62dba4c4b15b55a3092501918696c7c671e380a702ab26d8f74e6806c
$CDNENCFINISH
.ENDS NAND2_BASIC_GEN
*$
.SUBCKT NOR3_BASIC_GEN A B C Y PARAMS: VDD=1 VSS=0 VTHRESH=0.5 
$CDNENCSTART
eee8c5c7a2bc4b01f045f303678664e7916da0bae22e8cb0bba041dd67c69ce448ea70148a9ac1670c8926c1ac5057c8ccfcd77bf87ca9dc51ca76f58a35c91b
f305b7cfa07651615a9037c8c42a602b94aebb18efc1b73c4a0534bc16c6b751d67091752c09698a1541fe9d381cc67513d1669f9b59f9459f5367f224a7b243
ce312808b0a91175dcf306adebf133c08adb6aa41a95795ea15c08c068a69808cfc7b22210e4b40bc705dd04b9ac082dccad7adb7aae9f28f2212e091cd93164
49482642e74b34f5dcf306adebf133c03f0d1e907c0bf31f0104c14ab5ddc9bee71f71e18758417129766539e762b70b259a5cae22e5e134f3124dedab81c4b9
bd9831b9881f0b92e8f02e93fcf213a8c9c599a0ff3f11008534ad3211a69538deb7a7a8d541aada1ab093d9693dee2c1b68a86dfd8a38f773aa620944656ac8
02f2959404528fbd9ad2dc2e0af5de0e09d65151d9e42478cdccad8df35e9b29aee5b5e62dba4c4b15b55a3092501918696c7c671e380a702ab26d8f74e6806c
$CDNENCFINISH
.ENDS NOR3_BASIC_GEN
*$
.SUBCKT AND2_BASIC_GEN A B Y PARAMS: VDD=1 VSS=0 VTHRESH=0.5 
$CDNENCSTART
eee8c5c7a2bc4b01f045f303678664e7916da0bae22e8cb0bba041dd67c69ce448ea70148a9ac1670c8926c1ac5057c8ccfcd77bf87ca9dc51ca76f58a35c91b
f305b7cfa07651615a9037c8c42a602b94aebb18efc1b73c4a0534bc16c6b751d67091752c09698a1541fe9d381cc675621f57e8bf9b586e9f5367f224a7b243
ce312808b0a91175dcf306adebf133c01a6c7500361cb5a45652e10015a645e7e71f71e18758417129766539e762b70b259a5cae22e5e134f3124dedab81c4b9
bd9831b9881f0b92e8f02e93fcf213a8c9c599a0ff3f11008534ad3211a69538deb7a7a8d541aada1ab093d9693dee2c1b68a86dfd8a38f773aa620944656ac8
02f2959404528fbd9ad2dc2e0af5de0e09d65151d9e42478cdccad8df35e9b29aee5b5e62dba4c4b15b55a3092501918696c7c671e380a702ab26d8f74e6806c
$CDNENCFINISH
.ENDS AND2_BASIC_GEN
*$

