Version 4
SHEET 1 1788 680
WIRE -6672 -2576 -6688 -2576
WIRE -6480 -2576 -6672 -2576
WIRE -6368 -2576 -6480 -2576
WIRE -5952 -2576 -6288 -2576
WIRE -5760 -2576 -5952 -2576
WIRE -5568 -2576 -5760 -2576
WIRE -5104 -2576 -5504 -2576
WIRE -5072 -2576 -5104 -2576
WIRE -4960 -2576 -5072 -2576
WIRE -4912 -2576 -4960 -2576
WIRE -4800 -2576 -4912 -2576
WIRE -4640 -2576 -4800 -2576
WIRE -5760 -2544 -5760 -2576
WIRE -4432 -2544 -4592 -2544
WIRE -4640 -2528 -4640 -2576
WIRE -5952 -2512 -5952 -2576
WIRE -4800 -2512 -4800 -2576
WIRE -4592 -2512 -4592 -2544
WIRE -4432 -2512 -4432 -2544
WIRE -6672 -2496 -6672 -2576
WIRE -6480 -2496 -6480 -2576
WIRE -5072 -2496 -5072 -2576
WIRE -4912 -2496 -4912 -2576
WIRE -6160 -2432 -6336 -2432
WIRE -6048 -2432 -6080 -2432
WIRE -6000 -2432 -6048 -2432
WIRE -4640 -2416 -4640 -2448
WIRE -4592 -2416 -4592 -2464
WIRE -4432 -2416 -4432 -2432
WIRE -4432 -2416 -4592 -2416
WIRE -4432 -2384 -4432 -2416
WIRE -6672 -2320 -6672 -2336
WIRE -6480 -2320 -6480 -2432
WIRE -6480 -2320 -6672 -2320
WIRE -6048 -2320 -6048 -2352
WIRE -6048 -2320 -6480 -2320
WIRE -5952 -2320 -5952 -2416
WIRE -5952 -2320 -6048 -2320
WIRE -5760 -2320 -5760 -2352
WIRE -5760 -2320 -5952 -2320
WIRE -5232 -2320 -5760 -2320
WIRE -5072 -2320 -5072 -2432
WIRE -5072 -2320 -5232 -2320
WIRE -4912 -2320 -4912 -2416
WIRE -4912 -2320 -5072 -2320
WIRE -4800 -2320 -4800 -2432
WIRE -4800 -2320 -4912 -2320
WIRE -4640 -2320 -4640 -2336
WIRE -4640 -2320 -4800 -2320
WIRE -6672 -2272 -6672 -2320
WIRE -4560 -2272 -4592 -2272
WIRE -6336 -2224 -6336 -2432
WIRE -6336 -2224 -6432 -2224
WIRE -4960 -2224 -4960 -2576
WIRE -5616 -2176 -5616 -2192
WIRE -5616 -2176 -5744 -2176
WIRE -5232 -2176 -5232 -2320
WIRE -5616 -2128 -5616 -2176
WIRE -5984 -2112 -6336 -2112
WIRE -5744 -2112 -5744 -2176
WIRE -5744 -2112 -5984 -2112
WIRE -5696 -2112 -5744 -2112
WIRE -5232 -2112 -5232 -2176
WIRE -5232 -2112 -5536 -2112
WIRE -6336 -2096 -6336 -2112
WIRE -5744 -2080 -5744 -2112
WIRE -5696 -2080 -5744 -2080
WIRE -5264 -2080 -5536 -2080
WIRE -4592 -2080 -4592 -2272
WIRE -4592 -2080 -5264 -2080
WIRE -6208 -2048 -6272 -2048
WIRE -5984 -2048 -6208 -2048
WIRE -5744 -2048 -5984 -2048
WIRE -5696 -2048 -5744 -2048
WIRE -5232 -2048 -5536 -2048
WIRE -4960 -2048 -4960 -2144
WIRE -4960 -2048 -5232 -2048
WIRE -5744 -2016 -5744 -2048
WIRE -5696 -2016 -5744 -2016
WIRE -5232 -2016 -5536 -2016
WIRE -5040 -2016 -5232 -2016
WIRE -4960 -2000 -4960 -2048
WIRE -6432 -1968 -6432 -2224
WIRE -6336 -1968 -6336 -2000
WIRE -6336 -1968 -6432 -1968
WIRE -5728 -1968 -5936 -1968
WIRE -5696 -1968 -5728 -1968
WIRE -5408 -1968 -5536 -1968
WIRE -5360 -1968 -5408 -1968
WIRE -5728 -1936 -5824 -1936
WIRE -5696 -1936 -5728 -1936
WIRE -6336 -1920 -6336 -1968
WIRE -5936 -1920 -5936 -1968
WIRE -5488 -1920 -5536 -1920
WIRE -5360 -1920 -5360 -1968
WIRE -5264 -1920 -5360 -1920
WIRE -5040 -1920 -5040 -2016
WIRE -5040 -1920 -5184 -1920
WIRE -5824 -1904 -5824 -1936
WIRE -5040 -1904 -5040 -1920
WIRE -5728 -1888 -5760 -1888
WIRE -5696 -1888 -5728 -1888
WIRE -5472 -1888 -5536 -1888
WIRE -6208 -1872 -6208 -2048
WIRE -6208 -1872 -6272 -1872
WIRE -4960 -1872 -4960 -1920
WIRE -5472 -1840 -5472 -1888
WIRE -5616 -1808 -5616 -1872
WIRE -5040 -1792 -5040 -1824
WIRE -4864 -1792 -5040 -1792
WIRE -4688 -1792 -4784 -1792
WIRE -5936 -1776 -5936 -1840
WIRE -5824 -1776 -5824 -1840
WIRE -6208 -1760 -6208 -1872
WIRE -6336 -1728 -6336 -1824
WIRE -5040 -1728 -5040 -1792
WIRE -5920 -1664 -5968 -1664
WIRE -5888 -1664 -5920 -1664
WIRE -5760 -1664 -5760 -1888
WIRE -5760 -1664 -5808 -1664
WIRE -5712 -1664 -5760 -1664
WIRE -5584 -1664 -5632 -1664
WIRE -6208 -1632 -6208 -1680
WIRE -5040 -1616 -5040 -1648
WIRE -5920 -1552 -5920 -1664
WIRE -5872 -1552 -5920 -1552
WIRE -5760 -1552 -5760 -1664
WIRE -5760 -1552 -5808 -1552
WIRE -5584 -1504 -5584 -1664
FLAG -6672 -2272 0
FLAG -5952 -2576 DRAIN
FLAG -6688 -2576 IN
IOPIN -6688 -2576 In
FLAG -5616 -1808 0
FLAG -5616 -2192 IN
IOPIN -5616 -2192 In
FLAG -4960 -1872 0
FLAG -4560 -2272 5V-REF
IOPIN -4560 -2272 In
FLAG -4688 -1792 5V-REF
IOPIN -4688 -1792 In
FLAG -5488 -1920 5V-REF
IOPIN -5488 -1920 Out
FLAG -5936 -1776 0
FLAG -5824 -1776 0
FLAG -5040 -1616 0
FLAG -5472 -1840 0
FLAG -5968 -1664 5V-REF
IOPIN -5968 -1664 In
FLAG -5584 -1504 0
FLAG -5232 -2176 1IN+
FLAG -5264 -2080 1IN-
FLAG -5232 -2048 2IN+
FLAG -5232 -2016 2IN-
FLAG -5408 -1968 FB
FLAG -5728 -1888 DTC
FLAG -5728 -1936 CT
FLAG -5728 -1968 RT
FLAG -5984 -2112 C1
FLAG -5104 -2576 OUT
FLAG -4432 -2384 0
FLAG -5984 -2048 E1
FLAG -6208 -1632 0
FLAG -6336 -1728 0
SYMBOL ind -6384 -2560 R270
WINDOW 0 32 56 VTop 2
WINDOW 3 -25 55 VTop 2
SYMATTR InstName L1
SYMATTR Value 33µ
SYMATTR SpiceLine Ipk=30 Rser=0.001
SYMBOL schottky -5568 -2560 R270
WINDOW 0 32 32 VTop 2
WINDOW 3 0 32 VBottom 2
SYMATTR InstName D1
SYMATTR Value MBR20100CT
SYMBOL cap -5088 -2496 R0
SYMATTR InstName C3
SYMATTR Value 1m
SYMATTR SpiceLine Rser=0.002
SYMBOL voltage -6672 -2512 R0
WINDOW 123 0 0 Left 2
WINDOW 39 24 44 Left 2
WINDOW 3 -381 59 Left 2
SYMATTR Value PULSE(-1 1 1m 10u 10u 5m 10m)
SYMATTR InstName Vin
SYMBOL TL494 -5616 -2000 M0
SYMATTR InstName U1
SYMATTR Value ""
SYMATTR SpiceModel TL494
SYMBOL res -4976 -2240 R0
SYMATTR InstName R2
SYMATTR Value 75k
SYMBOL res -4976 -2016 R0
SYMATTR InstName R5
SYMATTR Value 5k
SYMBOL res -5952 -1936 R0
SYMATTR InstName R11
SYMATTR Value 5k
SYMBOL cap -5840 -1904 R0
SYMATTR InstName C2
SYMATTR Value 15n
SYMBOL res -4768 -1808 R90
WINDOW 0 0 56 VBottom 2
WINDOW 3 32 56 VTop 2
SYMATTR InstName R9
SYMATTR Value 5.1k
SYMBOL res -5024 -1632 R180
WINDOW 0 36 76 Left 2
WINDOW 3 36 40 Left 2
SYMATTR InstName R12
SYMATTR Value 5.1k
SYMBOL res -5792 -1680 R90
WINDOW 0 0 56 VBottom 2
WINDOW 3 32 56 VTop 2
SYMATTR InstName R13
SYMATTR Value 9.1k
SYMBOL res -5616 -1680 R90
WINDOW 0 0 56 VBottom 2
WINDOW 3 32 56 VTop 2
SYMATTR InstName R14
SYMATTR Value 1k
SYMBOL cap -5808 -1568 R90
WINDOW 0 0 32 VBottom 2
WINDOW 3 32 32 VTop 2
SYMATTR InstName C5
SYMATTR Value 2.2µ
SYMBOL res -4816 -2528 R0
SYMATTR InstName R1
SYMATTR Value 32
SYMBOL res -5168 -1936 R90
WINDOW 0 0 56 VBottom 2
WINDOW 3 32 56 VTop 2
SYMATTR InstName R4
SYMATTR Value 51k
SYMBOL res -4656 -2432 R0
SYMATTR InstName R16
SYMATTR Value 32
SYMBOL sw -4640 -2432 R180
SYMATTR InstName SW1
SYMATTR Value ""
SYMATTR Prefix SW
SYMATTR SpiceModel HIGH_LOAD_STEP
SYMBOL voltage -4432 -2528 R0
WINDOW 123 0 0 Left 2
WINDOW 39 0 0 Left 2
SYMATTR InstName V1
SYMATTR Value PULSE(0 5 14m 100u 100u 10m 20m)
SYMBOL nmos -6000 -2512 R0
SYMATTR InstName M2
SYMATTR Value IRFZ44N
SYMBOL voltage -6672 -2432 R0
WINDOW 123 0 0 Left 2
WINDOW 39 24 44 Left 2
SYMATTR SpiceLine Rser=0.02
SYMATTR InstName V2
SYMATTR Value PULSE(0 15 0 1m)
SYMBOL cap -6496 -2496 R0
SYMATTR InstName C4
SYMATTR Value 2m
SYMBOL res -5024 -1808 R180
WINDOW 0 36 76 Left 2
WINDOW 3 36 40 Left 2
SYMATTR InstName R7
SYMATTR Value 510
SYMBOL res -4928 -2512 R0
SYMATTR InstName R8
SYMATTR Value 1k
SYMBOL npn -6272 -2096 M0
SYMATTR InstName Q1
SYMATTR Value BD139
SYMBOL pnp -6272 -1824 R180
SYMATTR InstName Q2
SYMATTR Value BD140
SYMBOL res -6224 -1776 R0
SYMATTR InstName R10
SYMATTR Value 470
SYMBOL res -6064 -2448 R90
WINDOW 0 0 56 VBottom 2
WINDOW 3 32 56 VTop 2
SYMATTR InstName R3
SYMATTR Value 10
SYMBOL res -6064 -2448 R0
SYMATTR InstName R6
SYMATTR Value 2k
TEXT -6616 -2656 Left 2 !.tran 0 150m 0 startup uic
TEXT -7496 -2000 Left 2 !.meas TRAN AVG_CURRENT_MOS AVG Id(M1) FROM 0.07 TO 0.1\n.meas TRAN PEAK_CURRENT_MOS MAX Id(M1)\n.meas TRAN POTENCIA_MOS AVG V(D)*Id(M1) FROM 0.07 TO 0.1\n.meas TRAN Pin AVG -V(IN)*I(Vin) FROM 0.07 TO 0.1\n.meas TRAN Pout AVG V(OUT)*I(RS) FROM 0.07 TO 0.1\n.meas TRAN EFFICIENCY AVG Pout/Pin FROM 0.07 TO 0.1\n.meas TRAN VOUT AVG V(OUT) FROM 0.07 TO 0.1\n.meas TRAN VIN AVG V(IN) FROM 0.07 TO 0.1
TEXT -6304 -2664 Left 2 ;Boost DC-DC
TEXT -4296 -2616 Left 2 ;D = 1-Vi/Vo\nAVG(IL) = (Vo-Vi)/Iout
TEXT -5904 -2640 Left 2 ;UFR/SCHOTSKY
TEXT -6376 -2520 Left 2 ;LOW ESR
TEXT -7376 -2080 Left 2 !.inc TL494.sub
TEXT -5520 -2128 Left 2 ;Control por corriente
TEXT -5520 -2064 Left 2 ;Control de tensión
TEXT -6152 -1872 Left 2 ;Oscilador 100kHz
TEXT -5584 -1792 Left 2 ;Modo de operación
TEXT -5920 -2144 Left 2 ;Colector/Emisor TBJ
TEXT -5704 -1744 Left 2 ;Dead-Time Ctrl
TEXT -5032 -2648 Left 2 !.model HIGH_LOAD_STEP SW(Ron=1m Roff=1Meg Vt=3 Vh=-.5)
TEXT -7368 -2112 Left 2 !.inc opamp.sub
