* 
* 1N5226    3.3 Volt 1W zener diode
.model D1N5226  D(Is=31.47f Rs=9.494 Ikf=0 N=1 Xti=3 Eg=1.11 Cjo=220p M=.5959
+               Vj=.75 Fc=.5 Isr=2.035n Nr=2 Bv=3.3 Ibv=45.862m Nbv=3.0477
+               Ibvl=29.831m Nbvl=11.606 Tbv1=-636.36u)
*               Motorola        pid=1N5226      case=DO-35
*               89-9-18 gjg
*               Vz = 3.3 @ 20mA, Zz = 310 @ 1mA, Zz = 68 @ 5mA, Zz = 19 @ 20mA
